/*--------------------------------*- C++ -*----------------------------------*\
  =========                 |
  \\      /  F ield         | OpenFOAM: The Open Source CFD Toolbox
   \\    /   O peration     | Website:  https://openfoam.org
    \\  /    A nd           | Version:  6
     \\/     M anipulation  |
\*---------------------------------------------------------------------------*/
FoamFile
{
    version     2.0;
    format      ascii;
    class       volScalarField;
    location    "2429";
    object      omega;
}
// * * * * * * * * * * * * * * * * * * * * * * * * * * * * * * * * * * * * * //

dimensions      [0 0 -1 0 0 0 0];

internalField   uniform 73.84;

boundaryField
{
    PAREDE
    {
        Cmu             0.09;
        kappa           0.41;
        E               9.8;
        beta1           0.075;
        blended         false;
        type            omegaWallFunction;
        value           uniform 73.84;
    }
    OVERFLOW
    {
        type            zeroGradient;
    }
    UNDERFLOW
    {
        type            zeroGradient;
    }
    ENTRADA
    {
        type            turbulentMixingLengthFrequencyInlet;
        mixingLength    0.0058;
        phi             phi;
        k               k;
        value           uniform 192.764;
    }
}


// ************************************************************************* //
